REMARK  7 active torsions:
REMARK  status: ('A' for Active; 'I' for Inactive)
REMARK    1  A    between atoms: O_1  and  C_8 
REMARK    2  A    between atoms: O_2  and  C_20 
REMARK    3  A    between atoms: O_3  and  C_21 
REMARK    4  A    between atoms: O_4  and  C_22 
REMARK    5  A    between atoms: O_5  and  C_23 
REMARK    6  A    between atoms: O_6  and  C_24 
REMARK    7  A    between atoms: O_7  and  C_25 
ROOT
HETATM    1  C   UNL     1       0.638  -1.006  -0.940  1.00  0.00     0.062 C 
HETATM    2  C   UNL     1      -0.532  -0.380  -1.767  1.00  0.00     0.020 C 
HETATM    3  C   UNL     1       0.247  -2.292  -0.151  1.00  0.00     0.077 C 
HETATM    4  C   UNL     1      -1.178  -1.373  -2.786  1.00  0.00     0.046 C 
HETATM    5  C   UNL     1       0.323  -3.584  -0.953  1.00  0.00    -0.038 A 
HETATM    6  C   UNL     1      -2.308  -2.215  -2.206  1.00  0.00    -0.041 C 
HETATM    7  C   UNL     1       1.286   0.015   0.022  1.00  0.00     0.046 C 
HETATM    8  C   UNL     1      -1.593   0.342  -0.917  1.00  0.00     0.013 C 
HETATM    9  C   UNL     1      -0.774  -4.110  -1.677  1.00  0.00     0.020 A 
HETATM   10  C   UNL     1      -2.090  -3.450  -1.548  1.00  0.00     0.020 C 
HETATM   11  C   UNL     1       1.548  -4.264  -0.971  1.00  0.00     0.048 A 
HETATM   12  C   UNL     1      -3.603  -1.675  -2.267  1.00  0.00     0.047 C 
HETATM   13  C   UNL     1      -0.579  -5.299  -2.446  1.00  0.00     0.116 A 
HETATM   14  C   UNL     1      -3.170  -4.024  -0.820  1.00  0.00     0.116 C 
HETATM   15  C   UNL     1       1.746  -5.419  -1.725  1.00  0.00     0.104 A 
HETATM   16  C   UNL     1      -4.674  -2.245  -1.591  1.00  0.00     0.104 C 
HETATM   17  C   UNL     1       0.686  -5.951  -2.475  1.00  0.00     0.136 A 
HETATM   18  C   UNL     1      -4.463  -3.440  -0.868  1.00  0.00     0.136 C 
ENDROOT
BRANCH   1  19
HETATM   19  O   UNL     1       1.675  -1.305  -1.899  1.00  0.00    -0.390 OA
HETATM   20  H   UNL     1       2.385  -1.787  -1.443  1.00  0.00     0.210 HD
ENDBRANCH   1  19
BRANCH  13  21
HETATM   21  O   UNL     1      -1.621  -5.957  -3.060  1.00  0.00    -0.352 OA
HETATM   22  C   UNL     1      -2.444  -5.219  -3.951  1.00  0.00     0.210 C 
ENDBRANCH  13  21
BRANCH  15  23
HETATM   23  O   UNL     1       3.034  -5.877  -1.585  1.00  0.00    -0.353 OA
HETATM   24  C   UNL     1       3.448  -7.039  -2.279  1.00  0.00     0.210 C 
ENDBRANCH  15  23
BRANCH  14  25
HETATM   25  O   UNL     1      -3.091  -5.204  -0.112  1.00  0.00    -0.352 OA
HETATM   26  C   UNL     1      -1.939  -5.414   0.688  1.00  0.00     0.210 C 
ENDBRANCH  14  25
BRANCH  16  27
HETATM   27  O   UNL     1      -5.926  -1.687  -1.612  1.00  0.00    -0.353 OA
HETATM   28  C   UNL     1      -5.982  -0.268  -1.741  1.00  0.00     0.210 C 
ENDBRANCH  16  27
BRANCH  17  29
HETATM   29  O   UNL     1       0.974  -7.043  -3.251  1.00  0.00    -0.351 OA
HETATM   30  C   UNL     1      -0.016  -8.038  -3.447  1.00  0.00     0.210 C 
ENDBRANCH  17  29
BRANCH  18  31
HETATM   31  O   UNL     1      -5.418  -4.079  -0.104  1.00  0.00    -0.351 OA
HETATM   32  C   UNL     1      -6.763  -4.019  -0.557  1.00  0.00     0.210 C 
ENDBRANCH  18  31
TORSDOF 7
